&NAM_SURF_SLT CEMISPARAM_SLT = 'Ova14',
              LVARSIG_SLT    = .TRUE.,
              LRGFIX_SLT     = .FALSE.,
              JPMODE_SLT     = 5 /

&NAM_FORCING ZWIND  = 18.0,
             ZHS    = 2.0,
             ZSST   = 293.15,
             ZUSTAR = 1.6 /   
