&NAM_SURF_SLT CEMISPARAM_SLT = 'Ova14',
              LVARSIG_SLT    = .True.,
              LRGFIX_SLT     = .FALSE.,
              JPMODE_SLT     = 5 /
